Circuit: * Z:\home\charlie\work\BGP\BGP_F0\FINAL\CB_BGP_V0.asc

Direct Newton iteration failed to find .op point.  (Use ".option noopiter" to skip.)
Starting Gmin stepping
Gmin = 10
Gmin = 1.07374
Gmin = 0.115292
Gmin = 0.0123794
Gmin = 0.00132923
Gmin = 0.000142725
Gmin = 1.5325e-005
Gmin = 1.6455e-006
Gmin = 1.76685e-007
Gmin = 1.89714e-008
Gmin = 2.03704e-009
vernier = 0.5
vernier = 0.25
vernier = 0.125
vernier = 0.0625
vernier = 0.03125
Gmin = 1.59212e-009
vernier = 0.015625
vernier = 0.0078125
vernier = 0.0104167
Gmin = 1.57257e-009
vernier = 0.0138889
Gmin = 1.52558e-009
vernier = 0.0185185
vernier = 0.0246913
Gmin = 1.4517e-009
vernier = 0.0329218
vernier = 0.0438957
Gmin = 1.34202e-009
vernier = 0.0585276
Gmin = 1.18173e-009
vernier = 0.0780367
vernier = 0.104049
Gmin = 9.60293e-010
vernier = 0.138732
vernier = 0.184976
Gmin = 6.92579e-010
vernier = 0.246634
Gmin = 4.09619e-010
vernier = 0.328846
vernier = 0.438461
Gmin = 1.75795e-010
vernier = 0.584614
vernier = 0.779486
Gmin = 4.75018e-011
vernier = 1
Gmin = 6.39079e-012
Gmin = 6.86206e-013
Gmin = 0
Gmin stepping succeeded in finding the operating point.

.step rx=1
.step rx=2
.step rx=3
.step rx=4
.step rx=5
.step rx=6
.step rx=7
.step rx=8
.step rx=9
.step rx=10
.step rx=11

Date: Tue Jan 23 09:24:42 2018
Total elapsed time: 1.808 seconds.

tnom = 27
temp = 27
method = trap
totiter = 1914
traniter = 0
tranpoints = 0
accept = 0
rejected = 0
matrix size = 80
fillins = 118
solver = Normal
Matrix Compiler1:     532 opcodes
Matrix Compiler2: 9.43 KB object code size  1.2/1.8/[1.1]

