Circuit: * C:\Users\Charlie\Documents\GitHub\BGP\BGP_J0\FINAL\JFET_B.asc

Warning: Multiple definitions of model "u309" Type: JFET
Direct Newton iteration for .op point succeeded.

Date: Sun Feb 04 07:25:48 2018
Total elapsed time: 6.608 seconds.

tnom = 27
temp = 27
method = modified trap
totiter = 203330
traniter = 203324
tranpoints = 100033
accept = 100028
rejected = 5
matrix size = 33
fillins = 14
solver = Normal
Matrix Compiler1: 2.55 KB object code size  2.5/1.3/[0.7]
Matrix Compiler2: 2.86 KB object code size  1.3/1.5/[0.8]

