Circuit: * C:\Users\Charlie\Documents\GitHub\BGP\BGP_J0\FINAL\JFET_A.asc

Warning: Multiple definitions of model "u309" Type: JFET
WARNING: Node N020 is floating.

Direct Newton iteration for .op point succeeded.
.step rx=1
.step rx=2
.step rx=3
.step rx=4
.step rx=5
.step rx=6
.step rx=7
.step rx=8
.step rx=9
.step rx=10
.step rx=11

Date: Mon Jan 29 23:21:11 2018
Total elapsed time: 0.305 seconds.

tnom = 27
temp = 27
method = trap
totiter = 6
traniter = 0
tranpoints = 0
accept = 0
rejected = 0
matrix size = 45
fillins = 34
solver = Normal
Matrix Compiler1:     240 opcodes
Matrix Compiler2: 4.24 KB object code size
