Circuit: * C:\Users\Charlie\Documents\GitHub\BGP\BGP_V0\FINAL\CB_BGP_V0.asc

Direct Newton iteration failed to find .op point.  (Use ".option noopiter" to skip.)
Starting Gmin stepping
Gmin = 10
Gmin = 1.07374
vernier = 0.5
vernier = 0.25
vernier = 0.125
vernier = 0.0625
vernier = 0.03125
Gmin = 1.00965
vernier = 0.015625
vernier = 0.0078125
vernier = 0.00390625
vernier = 0.00195313
Gmin = 1.00036
vernier = 0.000976563
vernier = 0.000488281
Gmin = 0
Gmin stepping failed

Starting source stepping with srcstepmethod=0
Source Step = 3.0303%
Source Step = 33.3333%
Source Step = 63.6364%
Source Step = 93.9394%
Source stepping succeeded in finding the operating point.

.step rx=1
.step rx=2
.step rx=3
.step rx=4
.step rx=5
.step rx=6
.step rx=7
.step rx=8
.step rx=9
.step rx=10
.step rx=11

Date: Thu Jan 11 20:46:11 2018
Total elapsed time: 7.089 seconds.

tnom = 27
temp = 27
method = trap
totiter = 2157
traniter = 0
tranpoints = 0
accept = 0
rejected = 0
matrix size = 203
fillins = 931
solver = Normal
Matrix Compiler1:    4152 opcodes
Matrix Compiler2: 33.50 KB object code size  4.0/4.3/[1.6]

