Circuit: * Z:\home\charlie\work\BGP\BGP_V1\FINAL\CB_FILTER.asc

Early termination of direct N-R iteration.
Direct Newton iteration failed to find .op point.  (Use ".option noopiter" to skip.)
Starting Gmin stepping
Gmin = 10
Gmin = 1.07374
vernier = 0.5
vernier = 0.25
vernier = 0.125
vernier = 0.0625
vernier = 0.03125
vernier = 0.015625
Gmin = 1.01058
vernier = 0.0078125
vernier = 0.00390625
vernier = 0.00195313
vernier = 0.000976563
Gmin = 1.00272
vernier = 0.00130208
vernier = 0.000651042
vernier = 0.000488281
Gmin = 1.00126
Gmin = 0
Gmin stepping failed

Starting source stepping with srcstepmethod=0
Source Step = 3.0303%
Source Step = 24.4318%
vernier = 0.015625
Source Step = 24.349%
Source Step = 24.4673%
Source Step = 24.5857%
Source Step = 24.7041%
Source Step = 24.8224%
vernier = 0.00585938
Source Step = 24.9882%
Source Step = 25.1657%
Source Step = 25.3433%
Source Step = 25.5208%
Source Step = 25.6984%
vernier = 0.00878906
Source Step = 25.9381%
Source Step = 26.2044%
Source Step = 26.4708%
Source Step = 26.7371%
Source Step = 27.0034%
vernier = 0.0131836
Source Step = 27.3497%
Source Step = 27.7492%
Source Step = 28.1487%
Source Step = 28.5482%
Source Step = 28.9477%
vernier = 0.0197754
Source Step = 29.4471%
Source Step = 30.0463%
Source Step = 30.6456%
Source Step = 31.2448%
Source Step = 31.8441%
vernier = 0.0296631
Source Step = 32.5632%
Source Step = 33.4621%
Source Step = 34.3609%
Source Step = 34.9003%
Source Step = 35.125%
Source Step = 35.3497%
Source Step = 35.5744%
Source Step = 35.6756%
Source Step = 35.7317%
Source Step = 35.7879%
Source Step = 35.8441%
Source Step = 35.9003%
vernier = 0.00278091
Source Step = 35.9705%
Source Step = 36.0548%
Source Step = 36.139%
Source Step = 36.2233%
Source Step = 36.3076%
vernier = 0.00417137
Source Step = 36.3676%
Source Step = 36.3992%
Source Step = 36.4308%
Source Step = 36.4624%
Source Step = 36.494%
vernier = 0.00156426
Source Step = 36.5288%
Source Step = 36.5762%
Source Step = 36.6236%
Source Step = 36.671%
Source Step = 36.7184%
vernier = 0.0023464
Source Step = 36.7682%
Source Step = 36.8393%
Source Step = 36.9104%
Source Step = 36.9815%
Source Step = 37.0526%
Source Step = 37.1237%
vernier = 0.00351959
Source Step = 37.2303%
Source Step = 37.337%
Source Step = 37.4437%
Source Step = 37.5503%
Source Step = 37.657%
vernier = 0.00527939
Source Step = 37.8116%
Source Step = 37.9716%
Source Step = 38.1316%
Source Step = 38.2916%
Source Step = 38.4515%
vernier = 0.00791909
Source Step = 38.6755%
Source Step = 38.9155%
Source Step = 39.1555%
Source Step = 39.3954%
Source Step = 39.6354%
vernier = 0.0118786
Source Step = 39.9594%
Source Step = 40.3193%
Source Step = 40.6793%
Source Step = 41.0392%
Source Step = 41.3992%
vernier = 0.0178179
Source Step = 41.8671%
Source Step = 42.4071%
Source Step = 42.947%
Source Step = 43.487%
Source Step = 44.0269%
vernier = 0.0267269
Source Step = 44.7018%
Source Step = 45.5117%
Source Step = 46.3216%
Source Step = 47.1315%
Source Step = 47.9414%
vernier = 0.0400904
Source Step = 48.9133%
Source Step = 50.1282%
Source Step = 51.343%
Source Step = 52.5579%
Source Step = 53.7728%
vernier = 0.0601356
Source Step = 55.1699%
Source Step = 56.9921%
Source Step = 58.8144%
Source Step = 60.6367%
Source Step = 62.459%
vernier = 0.0902034
Source Step = 64.4635%
Source Step = 67.197%
Source Step = 69.9304%
Source Step = 72.6638%
Source Step = 75.3973%
vernier = 0.135305
Source Step = 78.2674%
Source Step = 82.3675%
Source Step = 86.4677%
Source Step = 90.5678%
Source Step = 94.668%
Source Step = 98.7682%
vernier = 0.202958
Source stepping succeeded in finding the operating point.

.step rx=1
.step rx=2
.step rx=3
.step rx=4
.step rx=5
.step rx=6
.step rx=7
.step rx=8
.step rx=9
.step rx=10
.step rx=11

Date: Fri Jan 12 12:59:04 2018
Total elapsed time: 36.963 seconds.

tnom = 27
temp = 27
method = trap
totiter = 4615
traniter = 0
tranpoints = 0
accept = 0
rejected = 0
matrix size = 334
fillins = 1935
solver = Normal
Matrix Compiler1:   12565 opcodes
Matrix Compiler2: 63.64 KB object code size  7.9/6.8/[5.3]

